<?xml version="1.0" encoding="UTF-8"?>

<!-- generated on 2026-03-05T09:38:06.501593+05:30 by Eclipse SUMO netedit 1.25.0
-->

<routes xmlns:xsi="http://www.w3.org/2001/XMLSchema-instance" xsi:noNamespaceSchemaLocation="http://sumo.dlr.de/xsd/routes_file.xsd">
    <!-- Routes -->
    <route id="r_0" edges="E0 E3"/>
    <route id="r_1" edges="E0 E2"/>
    <route id="r_10" edges="-E4 E3"/>
    <route id="r_11" edges="-E4 -E0"/>
    <route id="r_2" edges="E0 E4"/>
    <route id="r_3" edges="-E2 E4"/>
    <route id="r_4" edges="-E2 -E0"/>
    <route id="r_5" edges="-E2 E3"/>
    <route id="r_6" edges="-E3 -E0"/>
    <route id="r_7" edges="-E3 E4"/>
    <route id="r_8" edges="-E3 E2"/>
    <route id="r_9" edges="-E4 E2"/>
    <!-- Vehicles, persons and containers (sorted by depart) -->
    <flow id="f_0" begin="0.00" end="200.00" perHour="300.00" from="E0" to="E3"/>
    <flow id="f_1" begin="0.00" end="200.00" perHour="300.00" from="E0" to="E2"/>
    <flow id="f_2" begin="0.00" end="200.00" perHour="300.00" from="-E3" to="E2"/>
    <flow id="f_3" begin="0.00" end="200.00" perHour="300.00" from="-E3" to="-E0"/>
    <flow id="f_4" begin="0.00" end="200.00" perHour="300.00" from="-E3" to="E4"/>
    <flow id="f_5" begin="0.00" end="200.00" perHour="300.00" from="-E2" to="E3"/>
    <flow id="f_6" begin="0.00" end="200.00" perHour="300.00" from="-E2" to="-E0"/>
    <flow id="f_7" begin="0.00" end="200.00" perHour="300.00" from="-E4" to="E2"/>
</routes>
