<?xml version="1.0" encoding="UTF-8"?>

<!-- generated on 2026-03-05T09:38:06.507849+05:30 by Eclipse SUMO sumo 1.25.0
-->

<sumoConfiguration xmlns:xsi="http://www.w3.org/2001/XMLSchema-instance" xsi:noNamespaceSchemaLocation="http://sumo.dlr.de/xsd/sumoConfiguration.xsd">

    <input>
        <net-file value="pro.net.xml"/>
        <route-files value="rou.rou.xml"/>
    </input>

</sumoConfiguration>
